Version 4
SHEET 1 2504 940
WIRE 64 -336 -64 -336
WIRE 112 -336 64 -336
WIRE 192 -336 112 -336
WIRE 336 -336 192 -336
WIRE -64 -288 -64 -336
WIRE 64 -288 64 -336
WIRE 192 -288 192 -336
WIRE 336 -288 336 -336
WIRE 192 -224 64 -224
WIRE 336 -224 192 -224
WIRE -64 -176 -64 -208
WIRE 192 -176 192 -224
WIRE 864 -160 800 -160
WIRE 928 -160 864 -160
WIRE 1312 -160 1296 -160
WIRE 1344 -160 1312 -160
WIRE 800 -144 800 -160
WIRE 928 -128 928 -160
WIRE 800 -48 800 -64
WIRE 864 -48 800 -48
WIRE 928 -48 928 -64
WIRE 928 -48 864 -48
WIRE 1344 -48 1344 -160
WIRE 32 0 -48 0
WIRE 80 0 32 0
WIRE 1040 0 1008 0
WIRE 1296 0 1296 -160
WIRE 1296 0 1264 0
WIRE -48 16 -48 0
WIRE 240 32 192 32
WIRE 720 64 656 64
WIRE 848 64 784 64
WIRE 864 64 864 -48
WIRE 864 64 848 64
WIRE 1040 64 864 64
WIRE 1344 64 1344 32
WIRE 1344 64 1264 64
WIRE 1824 64 1728 64
WIRE 80 96 0 96
WIRE 240 96 192 96
WIRE -48 112 -48 96
WIRE 0 112 0 96
WIRE 0 112 -48 112
WIRE -48 128 -48 112
WIRE 1040 128 944 128
WIRE 1344 128 1344 64
WIRE 1344 128 1264 128
WIRE 1440 128 1344 128
WIRE 1040 192 880 192
WIRE 1280 192 1264 192
WIRE 1440 208 1440 128
WIRE 1728 208 1728 144
WIRE 1824 208 1728 208
WIRE 1280 224 1280 192
WIRE 2224 224 2224 208
WIRE 1728 240 1728 208
WIRE 944 256 944 128
WIRE 1008 272 1008 0
WIRE 1440 288 1440 272
WIRE 2144 304 2144 224
WIRE 2176 304 2144 304
WIRE 944 320 944 256
WIRE 2144 336 2144 304
WIRE 2144 352 2144 336
WIRE 2224 432 2224 224
WIRE 2176 448 2176 304
WIRE 2192 448 2176 448
WIRE 2352 464 2256 464
WIRE 2368 464 2352 464
WIRE 2192 480 2128 480
WIRE 2224 560 2224 496
WIRE 2144 576 2144 416
FLAG -48 128 0
FLAG 240 96 ENC
IOPIN 240 96 Out
FLAG 32 0 dc
FLAG 240 32 w
FLAG 1008 272 0
FLAG 1280 288 0
FLAG 1440 288 0
FLAG 656 64 ENC
FLAG -64 -176 0
FLAG 192 -176 0
FLAG 112 -336 VCC
FLAG 864 -160 VCC
FLAG 1312 -160 VCC
FLAG 880 192 VCC
FLAG 1728 304 0
FLAG 848 64 trig
FLAG 1824 208 Speed
FLAG 2224 560 0
FLAG 2224 208 VCC
FLAG 2144 576 0
FLAG 2352 464 pwm_buffered
FLAG 944 256 555_out
FLAG 2128 480 555_out
FLAG 1824 64 pwm_buffered
SYMBOL voltage -48 0 R0
WINDOW 0 -57 27 Left 2
WINDOW 3 -77 166 Left 2
WINDOW 123 0 0 Left 2
WINDOW 39 0 0 Left 2
SYMATTR InstName VDC
SYMATTR Value 5
SYMBOL DC_motor_model 128 48 R0
SYMATTR InstName X1
SYMBOL res 784 -160 R0
SYMATTR InstName R1
SYMATTR Value 1k
SYMBOL diode 944 -64 R180
WINDOW 0 24 64 Left 2
WINDOW 3 24 0 Left 2
SYMATTR InstName D1
SYMATTR Value 1N4148
SYMBOL cap 720 80 R270
WINDOW 0 32 32 VTop 2
WINDOW 3 0 32 VBottom 2
SYMATTR InstName C1
SYMATTR Value 4.7n
SYMBOL LM555 1152 96 R0
SYMATTR InstName U2
SYMBOL res 1328 -64 R0
SYMATTR InstName R2
SYMATTR Value 6.8k
SYMBOL cap 1424 208 R0
SYMATTR InstName C2
SYMATTR Value .1µ
SYMBOL cap 1264 224 R0
SYMATTR InstName C4
SYMATTR Value 0.1µF
SYMBOL voltage -64 -304 R0
WINDOW 123 0 0 Left 2
WINDOW 39 0 0 Left 2
SYMATTR InstName VCC
SYMATTR Value 5
SYMBOL cap 176 -288 R0
SYMATTR InstName C5
SYMATTR Value 0.1µ
SYMBOL cap 320 -288 R0
SYMATTR InstName C6
SYMATTR Value .1µ
SYMBOL polcap 48 -288 R0
SYMATTR InstName C7
SYMATTR Value 47µ
SYMBOL res 1712 48 R0
SYMATTR InstName R3
SYMATTR Value 18k
SYMBOL cap 1712 240 R0
SYMATTR InstName C3
SYMATTR Value .1µ
SYMBOL TLV272 2224 464 R0
SYMATTR InstName U1
SYMBOL res 2160 432 R180
WINDOW 0 36 76 Left 2
WINDOW 3 36 40 Left 2
SYMATTR InstName R4
SYMATTR Value 33k
SYMBOL res 2240 208 R90
WINDOW 0 0 56 VBottom 2
WINDOW 3 32 56 VTop 2
SYMATTR InstName R5
SYMATTR Value 33k
TEXT -104 200 Left 0 !.tran 0 .05 0
